*SPEF "ieee 1481-1999"
*DESIGN "demux"
*DATE "20:06:04 Friday March 21, 2025"
*VENDOR "The OpenROAD Project"
*PROGRAM "OpenROAD"
*VERSION "v2.0-19576-gec1bf1a13"
*DESIGN_FLOW "NAME_SCOPE LOCAL" "PIN_CAP NONE"
*DIVIDER /
*DELIMITER :
*BUS_DELIMITER []
*T_UNIT 1 NS
*C_UNIT 1 PF
*R_UNIT 1 OHM
*L_UNIT 1 HENRY

*NAME_MAP
*1 d
*2 s0
*3 s1
*4 s2
*5 net5
*6 net6
*7 net7
*8 net8
*9 net9
*10 net10
*11 net11
*12 net12
*15 net1
*16 net2
*17 net3
*18 net4
*19 y0
*20 y1
*21 y2
*22 y3
*23 y4
*24 y5
*25 y6
*26 y7
*27 _0_
*28 _1_
*29 _2_
*30 _3_
*31 _4_
*32 _5_
*33 _6_
*34 _7_
*35 TAP_TAPCELL_ROW_0_0
*36 TAP_TAPCELL_ROW_0_1
*37 TAP_TAPCELL_ROW_0_2
*38 TAP_TAPCELL_ROW_1_3
*39 TAP_TAPCELL_ROW_2_4
*40 TAP_TAPCELL_ROW_2_5
*41 TAP_TAPCELL_ROW_3_6
*42 TAP_TAPCELL_ROW_4_7
*43 TAP_TAPCELL_ROW_4_8
*44 TAP_TAPCELL_ROW_5_9
*45 TAP_TAPCELL_ROW_6_10
*46 TAP_TAPCELL_ROW_6_11
*47 TAP_TAPCELL_ROW_7_12
*48 TAP_TAPCELL_ROW_8_13
*49 TAP_TAPCELL_ROW_8_14
*50 TAP_TAPCELL_ROW_9_15
*51 TAP_TAPCELL_ROW_10_16
*52 TAP_TAPCELL_ROW_10_17
*53 TAP_TAPCELL_ROW_11_18
*54 TAP_TAPCELL_ROW_12_19
*55 TAP_TAPCELL_ROW_12_20
*56 TAP_TAPCELL_ROW_13_21
*57 TAP_TAPCELL_ROW_14_22
*58 TAP_TAPCELL_ROW_14_23
*59 TAP_TAPCELL_ROW_14_24
*60 input1
*61 input2
*62 input3
*63 input4
*64 output5
*65 output6
*66 output7
*67 output8
*68 output9
*69 output10
*70 output11
*71 output12
*72 FILLER_0_0
*73 FILLER_0_8
*74 FILLER_0_16
*75 FILLER_0_24
*76 FILLER_0_28
*77 FILLER_0_31
*78 FILLER_0_39
*79 FILLER_0_47
*80 FILLER_0_55
*81 FILLER_0_59
*82 FILLER_0_61
*83 FILLER_0_69
*84 FILLER_0_77
*85 FILLER_0_85
*86 FILLER_0_89
*87 FILLER_0_91
*88 FILLER_0_93
*89 FILLER_1_0
*90 FILLER_1_8
*91 FILLER_1_16
*92 FILLER_1_24
*93 FILLER_1_32
*94 FILLER_1_40
*95 FILLER_1_48
*96 FILLER_1_56
*97 FILLER_1_61
*98 FILLER_1_69
*99 FILLER_1_77
*100 FILLER_1_85
*101 FILLER_1_93
*102 FILLER_2_0
*103 FILLER_2_8
*104 FILLER_2_16
*105 FILLER_2_24
*106 FILLER_2_28
*107 FILLER_2_31
*108 FILLER_2_39
*109 FILLER_2_47
*110 FILLER_2_55
*111 FILLER_2_63
*112 FILLER_2_71
*113 FILLER_2_79
*114 FILLER_2_87
*115 FILLER_2_89
*116 FILLER_2_91
*117 FILLER_2_93
*118 FILLER_3_0
*119 FILLER_3_8
*120 FILLER_3_16
*121 FILLER_3_24
*122 FILLER_3_32
*123 FILLER_3_40
*124 FILLER_3_48
*125 FILLER_3_56
*126 FILLER_3_61
*127 FILLER_3_69
*128 FILLER_3_77
*129 FILLER_3_85
*130 FILLER_3_93
*131 FILLER_4_0
*132 FILLER_4_8
*133 FILLER_4_16
*134 FILLER_4_24
*135 FILLER_4_28
*136 FILLER_4_31
*137 FILLER_4_39
*138 FILLER_4_47
*139 FILLER_4_55
*140 FILLER_4_63
*141 FILLER_4_71
*142 FILLER_4_79
*143 FILLER_4_87
*144 FILLER_4_89
*145 FILLER_4_91
*146 FILLER_4_93
*147 FILLER_5_0
*148 FILLER_5_8
*149 FILLER_5_16
*150 FILLER_5_24
*151 FILLER_5_32
*152 FILLER_5_40
*153 FILLER_5_48
*154 FILLER_5_56
*155 FILLER_5_61
*156 FILLER_5_69
*157 FILLER_5_77
*158 FILLER_6_0
*159 FILLER_6_5
*160 FILLER_6_13
*161 FILLER_6_21
*162 FILLER_6_29
*163 FILLER_6_31
*164 FILLER_6_39
*165 FILLER_6_47
*166 FILLER_6_55
*167 FILLER_6_57
*168 FILLER_6_75
*169 FILLER_6_79
*170 FILLER_6_89
*171 FILLER_7_0
*172 FILLER_7_8
*173 FILLER_7_19
*174 FILLER_7_29
*175 FILLER_7_37
*176 FILLER_7_45
*177 FILLER_7_53
*178 FILLER_7_57
*179 FILLER_7_59
*180 FILLER_7_71
*181 FILLER_8_0
*182 FILLER_8_8
*183 FILLER_8_16
*184 FILLER_8_24
*185 FILLER_8_28
*186 FILLER_8_31
*187 FILLER_8_39
*188 FILLER_8_47
*189 FILLER_8_55
*190 FILLER_8_67
*191 FILLER_8_75
*192 FILLER_8_79
*193 FILLER_8_89
*194 FILLER_9_0
*195 FILLER_9_8
*196 FILLER_9_16
*197 FILLER_9_24
*198 FILLER_9_32
*199 FILLER_9_40
*200 FILLER_9_48
*201 FILLER_9_56
*202 FILLER_9_61
*203 FILLER_9_69
*204 FILLER_9_77
*205 FILLER_9_85
*206 FILLER_9_87
*207 FILLER_9_91
*208 FILLER_9_93
*209 FILLER_10_0
*210 FILLER_10_8
*211 FILLER_10_16
*212 FILLER_10_24
*213 FILLER_10_28
*214 FILLER_10_31
*215 FILLER_10_39
*216 FILLER_10_47
*217 FILLER_10_55
*218 FILLER_10_63
*219 FILLER_10_71
*220 FILLER_10_79
*221 FILLER_10_87
*222 FILLER_10_89
*223 FILLER_10_91
*224 FILLER_10_93
*225 FILLER_11_0
*226 FILLER_11_8
*227 FILLER_11_16
*228 FILLER_11_24
*229 FILLER_11_32
*230 FILLER_11_40
*231 FILLER_11_48
*232 FILLER_11_56
*233 FILLER_11_61
*234 FILLER_11_69
*235 FILLER_11_77
*236 FILLER_11_85
*237 FILLER_11_93
*238 FILLER_12_0
*239 FILLER_12_8
*240 FILLER_12_16
*241 FILLER_12_24
*242 FILLER_12_28
*243 FILLER_12_31
*244 FILLER_12_39
*245 FILLER_12_47
*246 FILLER_12_55
*247 FILLER_12_63
*248 FILLER_12_71
*249 FILLER_12_79
*250 FILLER_12_87
*251 FILLER_12_89
*252 FILLER_12_91
*253 FILLER_12_93
*254 FILLER_13_0
*255 FILLER_13_8
*256 FILLER_13_16
*257 FILLER_13_24
*258 FILLER_13_32
*259 FILLER_13_40
*260 FILLER_13_48
*261 FILLER_13_56
*262 FILLER_13_61
*263 FILLER_13_69
*264 FILLER_13_77
*265 FILLER_13_85
*266 FILLER_13_93
*267 FILLER_14_0
*268 FILLER_14_8
*269 FILLER_14_16
*270 FILLER_14_24
*271 FILLER_14_28
*272 FILLER_14_31
*273 FILLER_14_39
*274 FILLER_14_47
*275 FILLER_14_55
*276 FILLER_14_59
*277 FILLER_14_61
*278 FILLER_14_69
*279 FILLER_14_77
*280 FILLER_14_85
*281 FILLER_14_89
*282 FILLER_14_91
*283 FILLER_14_93

*PORTS
d I
s0 I
s1 I
s2 I
y0 O
y1 O
y2 O
y3 O
y4 O
y5 O
y6 O
y7 O

*D_NET *1 0.000938345
*CONN
*P d I
*I *60:A I *D sky130_fd_sc_hd__buf_1
*CAP
1 d 0.00041011
2 *60:A 0.00041011
3 *60:A *61:A 0.000118125
*RES
1 d *60:A 18.3246 
*END

*D_NET *2 0.000600448
*CONN
*P s0 I
*I *61:A I *D sky130_fd_sc_hd__buf_1
*CAP
1 s0 0.000150004
2 *61:A 0.000150004
3 *61:A *62:A 7.58517e-05
4 *61:A *63:A 0.000106464
5 *60:A *61:A 0.000118125
*RES
1 s0 *61:A 19.5267 
*END

*D_NET *3 0.00125819
*CONN
*P s1 I
*I *62:A I *D sky130_fd_sc_hd__buf_1
*CAP
1 s1 0.000371159
2 *62:A 0.000371159
3 *62:A y5 6.8673e-06
4 *62:A y6 7.01346e-05
5 *62:A *63:A 0.000130932
6 *62:A *70:A 6.20642e-05
7 *62:A *16:10 5.97296e-05
8 *62:A *17:12 0.000110297
9 *61:A *62:A 7.58517e-05
*RES
1 s1 *62:A 25.3229 
*END

*D_NET *4 0.000435459
*CONN
*P s2 I
*I *63:A I *D sky130_fd_sc_hd__buf_1
*CAP
1 s2 9.53211e-05
2 *63:A 9.53211e-05
3 *63:A *17:23 7.42047e-06
4 *61:A *63:A 0.000106464
5 *62:A *63:A 0.000130932
*RES
1 s2 *63:A 18.2809 
*END

*D_NET *5 0.00346813
*CONN
*I *64:A I *D sky130_fd_sc_hd__buf_1
*I *27:Y O *D sky130_fd_sc_hd__nor4b_1
*CAP
1 *64:A 0
2 *27:Y 0.0014598
3 *5:6 0.0014598
4 *5:6 *29:A_N 5.29538e-05
5 *5:6 *29:B_N 0.000164181
6 *5:6 *29:C 0.00016195
7 *5:6 *29:D 4.38909e-05
8 *5:6 *7:16 6.27718e-05
9 *5:6 *15:16 6.27782e-05
*RES
1 *27:Y *5:6 46.0218 
2 *5:6 *64:A 9.24915 
*END

*D_NET *6 0.00453647
*CONN
*I *65:A I *D sky130_fd_sc_hd__buf_1
*I *28:X O *D sky130_fd_sc_hd__and4bb_1
*CAP
1 *65:A 2.3034e-05
2 *28:X 0.00132239
3 *6:22 0.00134543
4 *6:22 y1 2.32594e-05
5 *6:22 y2 0.00049413
6 *6:22 *28:A_N 2.47224e-05
7 *6:22 *28:C 0.000175485
8 *6:22 *68:A 0.00104548
9 *6:22 *7:16 7.24449e-05
10 *6:22 *16:80 1.00981e-05
*RES
1 *28:X *6:22 49.6439 
2 *6:22 *65:A 9.82786 
*END

*D_NET *7 0.00404243
*CONN
*I *66:A I *D sky130_fd_sc_hd__buf_1
*I *29:X O *D sky130_fd_sc_hd__and4bb_1
*CAP
1 *66:A 0
2 *29:X 0.000734269
3 *7:16 0.000734269
4 *7:16 *29:B_N 0
5 *7:16 *29:D 6.08467e-05
6 *7:16 *68:A 0.00210165
7 *7:16 *15:27 0.000165495
8 *7:16 *16:80 0
9 *7:16 *18:56 0.000110684
10 *5:6 *7:16 6.27718e-05
11 *6:22 *7:16 7.24449e-05
*RES
1 *29:X *7:16 46.6458 
2 *7:16 *66:A 9.24915 
*END

*D_NET *8 0.000227863
*CONN
*I *67:A I *D sky130_fd_sc_hd__buf_1
*I *30:X O *D sky130_fd_sc_hd__and4b_1
*CAP
1 *67:A 0.000109003
2 *30:X 0.000109003
3 *67:A y3 9.85683e-06
*RES
1 *30:X *67:A 30.1608 
*END

*D_NET *9 0.00449335
*CONN
*I *68:A I *D sky130_fd_sc_hd__buf_1
*I *31:X O *D sky130_fd_sc_hd__and4bb_1
*CAP
1 *68:A 0.000323305
2 *31:X 0.000323305
3 *68:A *28:B_N 0.00021217
4 *68:A *17:62 0.000416183
5 *68:A *18:50 5.56461e-05
6 *68:A *18:56 1.5613e-05
7 *6:22 *68:A 0.00104548
8 *7:16 *68:A 0.00210165
*RES
1 *31:X *68:A 43.0696 
*END

*D_NET *10 0.000176431
*CONN
*I *69:A I *D sky130_fd_sc_hd__buf_1
*I *32:X O *D sky130_fd_sc_hd__and4b_1
*CAP
1 *69:A 4.64716e-05
2 *32:X 4.64716e-05
3 *69:A *34:C 1.84293e-05
4 *69:A *17:27 6.50586e-05
*RES
1 *32:X *69:A 20.2103 
*END

*D_NET *11 0.000583513
*CONN
*I *70:A I *D sky130_fd_sc_hd__buf_1
*I *33:X O *D sky130_fd_sc_hd__and4b_1
*CAP
1 *70:A 0.000207538
2 *33:X 0.000207538
3 *70:A *30:D 3.28433e-06
4 *70:A *17:23 1.15766e-05
5 *70:A *17:82 2.39679e-05
6 *70:A *18:8 6.75453e-05
7 *62:A *70:A 6.20642e-05
*RES
1 *33:X *70:A 31.9934 
*END

*D_NET *12 0.000607243
*CONN
*I *71:A I *D sky130_fd_sc_hd__buf_1
*I *34:X O *D sky130_fd_sc_hd__and4_1
*CAP
1 *71:A 0.000269692
2 *34:X 0.000269692
3 *71:A y5 6.78596e-05
*RES
1 *34:X *71:A 25.3464 
*END

*D_NET *15 0.00637005
*CONN
*I *33:B I *D sky130_fd_sc_hd__and4b_1
*I *27:D_N I *D sky130_fd_sc_hd__nor4b_1
*I *30:C I *D sky130_fd_sc_hd__and4b_1
*I *28:C I *D sky130_fd_sc_hd__and4bb_1
*I *32:B I *D sky130_fd_sc_hd__and4b_1
*I *34:C I *D sky130_fd_sc_hd__and4_1
*I *31:C I *D sky130_fd_sc_hd__and4bb_1
*I *29:C I *D sky130_fd_sc_hd__and4bb_1
*I *60:X O *D sky130_fd_sc_hd__buf_1
*CAP
1 *33:B 0
2 *27:D_N 2.12792e-05
3 *30:C 0.000315472
4 *28:C 3.76723e-05
5 *32:B 0
6 *34:C 0.000133528
7 *31:C 0
8 *29:C 6.12736e-05
9 *60:X 0.000190156
10 *15:54 0.000436451
11 *15:36 0.000434987
12 *15:29 0.000301459
13 *15:27 0.000298093
14 *15:16 0.000400414
15 *15:14 0.00038945
16 *15:12 0.000433972
17 *28:C *16:74 6.75138e-05
18 *28:C *16:80 3.14978e-05
19 *30:C *30:B 0.000111722
20 *30:C *30:D 5.04829e-06
21 *30:C *16:74 0.000134732
22 *30:C *18:29 0.000102003
23 *30:C *18:31 0.00015709
24 *30:C *18:37 0.000326398
25 *34:C y5 0.000214364
26 *34:C *32:C 0.000271044
27 *34:C *32:D 2.6874e-05
28 *34:C *34:B 0.00021435
29 *34:C *17:27 4.70877e-05
30 *34:C *17:62 3.01683e-06
31 *15:12 *16:10 5.73724e-05
32 *15:14 *27:B 0.000113112
33 *15:14 *18:14 2.58616e-05
34 *15:16 *27:B 3.25052e-05
35 *15:16 *29:D 2.8212e-05
36 *15:27 *27:A 0
37 *15:27 *29:B_N 0
38 *15:27 *16:80 0
39 *15:27 *17:35 2.7961e-05
40 *15:27 *18:37 0
41 *15:36 *17:27 9.77611e-06
42 *15:36 *17:62 0.000324166
43 *15:54 *16:80 0
44 *15:54 *18:37 0
45 *69:A *34:C 1.84293e-05
46 *5:6 *29:C 0.00016195
47 *5:6 *15:16 6.27782e-05
48 *6:22 *28:C 0.000175485
49 *7:16 *15:27 0.000165495
*RES
1 *60:X *15:12 21.9137 
2 *15:12 *15:14 6.26943 
3 *15:14 *15:16 3.49641 
4 *15:16 *29:C 11.0817 
5 *15:16 *15:27 9.65401 
6 *15:27 *15:29 4.5 
7 *15:29 *31:C 9.24915 
8 *15:29 *15:36 5.16022 
9 *15:36 *34:C 16.0973 
10 *15:36 *32:B 9.24915 
11 *15:27 *15:54 6.332 
12 *15:54 *28:C 11.6364 
13 *15:54 *30:C 19.4008 
14 *15:14 *27:D_N 9.82786 
15 *15:12 *33:B 9.24915 
*END

*D_NET *16 0.00645041
*CONN
*I *28:D I *D sky130_fd_sc_hd__and4bb_1
*I *31:A_N I *D sky130_fd_sc_hd__and4bb_1
*I *29:B_N I *D sky130_fd_sc_hd__and4bb_1
*I *30:B I *D sky130_fd_sc_hd__and4b_1
*I *32:C I *D sky130_fd_sc_hd__and4b_1
*I *34:B I *D sky130_fd_sc_hd__and4_1
*I *27:B I *D sky130_fd_sc_hd__nor4b_1
*I *33:A_N I *D sky130_fd_sc_hd__and4b_1
*I *61:X O *D sky130_fd_sc_hd__buf_1
*CAP
1 *28:D 0
2 *31:A_N 0
3 *29:B_N 0.000190839
4 *30:B 0.000436178
5 *32:C 0.000165327
6 *34:B 4.30851e-05
7 *27:B 0.000228188
8 *33:A_N 0
9 *61:X 0.000428198
10 *16:80 0.000371915
11 *16:74 0.000492815
12 *16:47 0.000324053
13 *16:36 0.000233467
14 *16:19 0.000419551
15 *16:10 0.000463465
16 *27:B *29:D 3.75603e-05
17 *29:B_N *28:A_N 3.31882e-05
18 *29:B_N *29:A_N 9.75356e-05
19 *30:B *32:D 0
20 *30:B *18:29 7.14746e-05
21 *34:B *34:A 6.50727e-05
22 *34:B *17:27 3.5508e-05
23 *16:10 *17:12 1.00937e-05
24 *16:19 *27:A 0
25 *16:19 *17:23 0
26 *16:19 *18:14 1.44467e-05
27 *16:36 *27:A 0
28 *16:36 *18:14 0.000101849
29 *16:36 *18:29 2.24484e-05
30 *16:36 *18:37 0
31 *16:47 *18:29 5.05252e-05
32 *16:74 *18:29 0.000118166
33 *16:74 *18:31 0.000171288
34 *16:74 *18:37 0.000326398
35 *16:80 *28:A_N 0.000229911
36 *16:80 *18:37 0
37 *28:C *16:74 6.75138e-05
38 *28:C *16:80 3.14978e-05
39 *30:C *30:B 0.000111722
40 *30:C *16:74 0.000134732
41 *34:C *32:C 0.000271044
42 *34:C *34:B 0.00021435
43 *62:A *16:10 5.97296e-05
44 *5:6 *29:B_N 0.000164181
45 *6:22 *16:80 1.00981e-05
46 *7:16 *29:B_N 0
47 *7:16 *16:80 0
48 *15:12 *16:10 5.73724e-05
49 *15:14 *27:B 0.000113112
50 *15:16 *27:B 3.25052e-05
51 *15:27 *29:B_N 0
52 *15:27 *16:80 0
53 *15:54 *16:80 0
*RES
1 *61:X *16:10 24.4814 
2 *16:10 *33:A_N 13.7491 
3 *16:10 *16:19 1.00149 
4 *16:19 *27:B 20.0427 
5 *16:19 *16:36 3.98154 
6 *16:36 *34:B 16.1364 
7 *16:36 *16:47 1.00149 
8 *16:47 *32:C 16.691 
9 *16:47 *30:B 16.4439 
10 *30:B *16:74 20.51 
11 *16:74 *16:80 10.1015 
12 *16:80 *29:B_N 19.0748 
13 *16:80 *31:A_N 13.7491 
14 *16:74 *28:D 9.24915 
*END

*D_NET *17 0.00639209
*CONN
*I *30:D I *D sky130_fd_sc_hd__and4b_1
*I *34:D I *D sky130_fd_sc_hd__and4_1
*I *31:B_N I *D sky130_fd_sc_hd__and4bb_1
*I *28:B_N I *D sky130_fd_sc_hd__and4bb_1
*I *32:A_N I *D sky130_fd_sc_hd__and4b_1
*I *29:D I *D sky130_fd_sc_hd__and4bb_1
*I *27:C I *D sky130_fd_sc_hd__nor4b_1
*I *33:C I *D sky130_fd_sc_hd__and4b_1
*I *62:X O *D sky130_fd_sc_hd__buf_1
*CAP
1 *30:D 0.000328832
2 *34:D 0
3 *31:B_N 0
4 *28:B_N 0.000185903
5 *32:A_N 0
6 *29:D 0.000135519
7 *27:C 0
8 *33:C 5.75683e-05
9 *62:X 0.000351438
10 *17:82 0.000380444
11 *17:62 0.000344919
12 *17:53 0.000197272
13 *17:35 0.000329653
14 *17:27 0.000767265
15 *17:23 0.000713187
16 *17:12 0.000535706
17 *28:B_N *28:A_N 2.61377e-05
18 *30:D *18:29 5.37258e-05
19 *33:C *18:8 8.52404e-05
20 *33:C *18:14 8.02807e-05
21 *17:12 *18:8 0.000110375
22 *17:23 *18:14 0
23 *17:27 y5 2.11837e-06
24 *17:27 *32:D 8.13961e-06
25 *17:27 *34:A 2.65831e-05
26 *17:35 *27:A 5.04734e-05
27 *17:35 *18:50 0.000113968
28 *17:53 *31:D 0
29 *17:53 *18:56 0
30 *17:62 *18:50 2.42138e-05
31 *17:82 *18:14 0
32 *27:B *29:D 3.75603e-05
33 *30:C *30:D 5.04829e-06
34 *34:B *17:27 3.5508e-05
35 *34:C *17:27 4.70877e-05
36 *34:C *17:62 3.01683e-06
37 *62:A *17:12 0.000110297
38 *63:A *17:23 7.42047e-06
39 *68:A *28:B_N 0.00021217
40 *68:A *17:62 0.000416183
41 *69:A *17:27 6.50586e-05
42 *70:A *30:D 3.28433e-06
43 *70:A *17:23 1.15766e-05
44 *70:A *17:82 2.39679e-05
45 *5:6 *29:D 4.38909e-05
46 *7:16 *29:D 6.08467e-05
47 *15:16 *29:D 2.8212e-05
48 *15:27 *17:35 2.7961e-05
49 *15:36 *17:27 9.77611e-06
50 *15:36 *17:62 0.000324166
51 *16:10 *17:12 1.00937e-05
52 *16:19 *17:23 0
*RES
1 *62:X *17:12 17.52 
2 *17:12 *33:C 11.0817 
3 *17:12 *17:23 7.1625 
4 *17:23 *17:27 12.9878 
5 *17:27 *17:35 13.0799 
6 *17:35 *27:C 9.24915 
7 *17:35 *29:D 13.3484 
8 *17:27 *17:53 0.988641 
9 *17:53 *32:A_N 9.24915 
10 *17:53 *17:62 7.25807 
11 *17:62 *28:B_N 22.8836 
12 *17:62 *31:B_N 9.24915 
13 *17:23 *17:82 1.41674 
14 *17:82 *34:D 13.7491 
15 *17:82 *30:D 20.1437 
*END

*D_NET *18 0.0060137
*CONN
*I *33:D I *D sky130_fd_sc_hd__and4b_1
*I *30:A_N I *D sky130_fd_sc_hd__and4b_1
*I *32:D I *D sky130_fd_sc_hd__and4b_1
*I *31:D I *D sky130_fd_sc_hd__and4bb_1
*I *28:A_N I *D sky130_fd_sc_hd__and4bb_1
*I *29:A_N I *D sky130_fd_sc_hd__and4bb_1
*I *27:A I *D sky130_fd_sc_hd__nor4b_1
*I *34:A I *D sky130_fd_sc_hd__and4_1
*I *63:X O *D sky130_fd_sc_hd__buf_1
*CAP
1 *33:D 0
2 *30:A_N 0
3 *32:D 0.000109858
4 *31:D 2.06324e-05
5 *28:A_N 0.000241898
6 *29:A_N 0.000107803
7 *27:A 0.000116103
8 *34:A 1.26312e-05
9 *63:X 0.000123473
10 *18:56 0.000627501
11 *18:50 0.000354219
12 *18:37 0.00037202
13 *18:31 0.000323708
14 *18:29 0.000140262
15 *18:14 0.000316227
16 *18:8 0.000300528
17 *28:B_N *28:A_N 2.61377e-05
18 *29:B_N *28:A_N 3.31882e-05
19 *29:B_N *29:A_N 9.75356e-05
20 *30:B *32:D 0
21 *30:B *18:29 7.14746e-05
22 *30:C *18:29 0.000102003
23 *30:C *18:31 0.00015709
24 *30:C *18:37 0.000326398
25 *30:D *18:29 5.37258e-05
26 *33:C *18:8 8.52404e-05
27 *33:C *18:14 8.02807e-05
28 *34:B *34:A 6.50727e-05
29 *34:C *32:D 2.6874e-05
30 *68:A *18:50 5.56461e-05
31 *68:A *18:56 1.5613e-05
32 *70:A *18:8 6.75453e-05
33 *5:6 *29:A_N 5.29538e-05
34 *6:22 *28:A_N 2.47224e-05
35 *7:16 *18:56 0.000110684
36 *15:14 *18:14 2.58616e-05
37 *15:27 *27:A 0
38 *15:27 *18:37 0
39 *15:54 *18:37 0
40 *16:19 *27:A 0
41 *16:19 *18:14 1.44467e-05
42 *16:36 *27:A 0
43 *16:36 *18:14 0.000101849
44 *16:36 *18:29 2.24484e-05
45 *16:36 *18:37 0
46 *16:47 *18:29 5.05252e-05
47 *16:74 *18:29 0.000118166
48 *16:74 *18:31 0.000171288
49 *16:74 *18:37 0.000326398
50 *16:80 *28:A_N 0.000229911
51 *16:80 *18:37 0
52 *17:12 *18:8 0.000110375
53 *17:23 *18:14 0
54 *17:27 *32:D 8.13961e-06
55 *17:27 *34:A 2.65831e-05
56 *17:35 *27:A 5.04734e-05
57 *17:35 *18:50 0.000113968
58 *17:53 *31:D 0
59 *17:53 *18:56 0
60 *17:62 *18:50 2.42138e-05
61 *17:82 *18:14 0
*RES
1 *63:X *18:8 13.7282 
2 *18:8 *18:14 9.56106 
3 *18:14 *34:A 14.4725 
4 *18:14 *18:29 9.271 
5 *18:29 *18:31 1.8326 
6 *18:31 *18:37 11.9047 
7 *18:37 *27:A 16.4116 
8 *18:37 *18:50 6.88721 
9 *18:50 *18:56 9.12973 
10 *18:56 *29:A_N 16.8591 
11 *18:56 *28:A_N 20.7358 
12 *18:50 *31:D 9.82786 
13 *18:31 *32:D 21.6464 
14 *18:29 *30:A_N 9.24915 
15 *18:8 *33:D 9.24915 
*END

*D_NET *19 0.000505125
*CONN
*P y0 O
*I *64:X O *D sky130_fd_sc_hd__buf_1
*CAP
1 y0 0.000167821
2 *64:X 0.000167821
3 y0 y1 0.000169483
*RES
1 *64:X y0 19.2644 
*END

*D_NET *20 0.00151859
*CONN
*P y1 O
*I *65:X O *D sky130_fd_sc_hd__buf_1
*CAP
1 y1 0.000527075
2 *65:X 0.000527075
3 y1 y2 0.000271695
4 y0 y1 0.000169483
5 *6:22 y1 2.32594e-05
*RES
1 *65:X y1 24.0395 
*END

*D_NET *21 0.00236877
*CONN
*P y2 O
*I *66:X O *D sky130_fd_sc_hd__buf_1
*CAP
1 y2 0.000623899
2 *66:X 0.000623899
3 y2 y4 0.000355147
4 y1 y2 0.000271695
5 *6:22 y2 0.00049413
*RES
1 *66:X y2 26.9026 
*END

*D_NET *22 0.00036271
*CONN
*P y3 O
*I *67:X O *D sky130_fd_sc_hd__buf_1
*CAP
1 y3 0.000131841
2 *67:X 0.000131841
3 y3 y5 1.65787e-05
4 y3 y7 7.2593e-05
5 *67:A y3 9.85683e-06
*RES
1 *67:X y3 17.9422 
*END

*D_NET *23 0.00210233
*CONN
*P y4 O
*I *68:X O *D sky130_fd_sc_hd__buf_1
*CAP
1 y4 0.000873593
2 *68:X 0.000873593
3 y2 y4 0.000355147
*RES
1 *68:X y4 20.5956 
*END

*D_NET *24 0.00131119
*CONN
*P y5 O
*I *69:X O *D sky130_fd_sc_hd__buf_1
*CAP
1 y5 0.000429559
2 *69:X 0.000429559
3 y5 y6 7.57937e-05
4 y5 y7 6.84918e-05
5 y3 y5 1.65787e-05
6 *34:C y5 0.000214364
7 *62:A y5 6.8673e-06
8 *71:A y5 6.78596e-05
9 *17:27 y5 2.11837e-06
*RES
1 *69:X y5 23.3018 
*END

*D_NET *25 0.000291812
*CONN
*P y6 O
*I *70:X O *D sky130_fd_sc_hd__buf_1
*CAP
1 y6 7.29417e-05
2 *70:X 7.29417e-05
3 y5 y6 7.57937e-05
4 *62:A y6 7.01346e-05
*RES
1 *70:X y6 18.128 
*END

*D_NET *26 0.000224926
*CONN
*P y7 O
*I *71:X O *D sky130_fd_sc_hd__buf_1
*CAP
1 y7 4.19208e-05
2 *71:X 4.19208e-05
3 y3 y7 7.2593e-05
4 y5 y7 6.84918e-05
*RES
1 *71:X y7 17.7127 
*END
